Circuit: * C:\Users\young\Downloads\parallel_clipper.asc

.OP point found by inspection.

Date: Fri Feb 14 10:44:58 2025
Total elapsed time: 0.133 seconds.

tnom = 27
temp = 27
method = modified trap
totiter = 2441
traniter = 2441
tranpoints = 1098
accept = 1074
rejected = 24
matrix size = 6
fillins = 0
solver = Normal
Avg thread counts: 2.1/3.5/3.5/2.1
Matrix Compiler1: 218 bytes object code size  0.2/0.2/[0.2]
Matrix Compiler2: 394 bytes object code size  0.1/0.3/[0.1]

