Circuit: * C:\Users\young\Downloads\Draft2.asc

Direct Newton iteration for .op point succeeded.

Date: Fri Feb 14 10:36:17 2025
Total elapsed time: 0.077 seconds.

tnom = 27
temp = 27
method = modified trap
totiter = 2448
traniter = 2433
tranpoints = 1209
accept = 1169
rejected = 40
matrix size = 4
fillins = 0
solver = Normal
Avg thread counts: 2.1/3.2/3.3/2.1
Matrix Compiler1:       8 opcodes  0.1/[0.1]/0.2
Matrix Compiler2: 236 bytes object code size  0.1/0.2/[0.1]

